Version 4
SHEET 1 880 680
WIRE 288 48 208 48
WIRE -64 128 -112 128
WIRE -112 144 -112 128
WIRE -64 160 -64 128
WIRE -32 160 -64 160
WIRE 128 160 128 48
WIRE 128 160 48 160
WIRE 176 160 128 160
WIRE 288 176 288 48
WIRE 288 176 240 176
WIRE 320 176 288 176
WIRE 176 192 128 192
WIRE 128 224 128 192
WIRE -112 240 -112 224
WIRE 128 336 128 304
FLAG 128 336 0
FLAG -112 240 0
FLAG 464 48 Vcc
FLAG 208 144 Vcc
FLAG 624 48 Vee
FLAG 208 208 Vee
FLAG 464 128 0
FLAG 624 128 0
SYMBOL res 224 32 R90
WINDOW 0 0 56 VBottom 2
WINDOW 3 32 56 VTop 2
SYMATTR InstName R1
SYMATTR Value 10k
SYMBOL res 64 144 R90
WINDOW 0 0 56 VBottom 2
WINDOW 3 32 56 VTop 2
SYMATTR InstName R2
SYMATTR Value 1k
SYMBOL voltage -112 128 R0
WINDOW 3 9 95 Left 2
WINDOW 123 0 0 Left 0
WINDOW 39 24 72 Left 2
SYMATTR Value SINE(0 100m 100)
SYMATTR InstName V1
SYMBOL res 112 208 R0
SYMATTR InstName R3
SYMATTR Value 1k
SYMBOL OpAmps\\UniversalOpAmp 208 176 R0
SYMATTR InstName U1
SYMBOL voltage 464 32 R0
WINDOW 123 0 0 Left 0
WINDOW 39 0 0 Left 0
SYMATTR InstName V2
SYMATTR Value 12
SYMBOL voltage 624 32 R0
WINDOW 123 0 0 Left 0
WINDOW 39 0 0 Left 0
SYMATTR InstName V3
SYMATTR Value -12
TEXT -146 360 Left 2 !.tran 50m
