Version 4
SHEET 1 880 680
WIRE 160 48 144 48
WIRE 272 48 240 48
WIRE 32 160 16 160
WIRE 144 160 144 48
WIRE 144 160 112 160
WIRE 176 160 144 160
WIRE 272 176 272 48
WIRE 272 176 240 176
WIRE 304 176 272 176
WIRE 176 192 144 192
WIRE 16 240 -48 240
WIRE 144 240 144 192
WIRE 144 240 96 240
FLAG 16 160 0
FLAG -128 240 0
FLAG 432 112 0
FLAG 592 112 0
FLAG 432 32 Vcc
FLAG 208 144 Vcc
FLAG 592 32 Vee
FLAG 208 208 Vee
SYMBOL voltage -32 240 R90
WINDOW 0 -32 56 VBottom 2
WINDOW 3 32 56 VTop 2
WINDOW 123 0 0 Left 0
WINDOW 39 0 0 Left 0
SYMATTR InstName V1
SYMATTR Value SINE(0 100m 100)
SYMBOL res 16 144 M90
WINDOW 0 0 56 VBottom 2
WINDOW 3 32 56 VTop 2
SYMATTR InstName R1
SYMATTR Value 1k
SYMBOL res 144 32 M90
WINDOW 0 0 56 VBottom 2
WINDOW 3 32 56 VTop 2
SYMATTR InstName R2
SYMATTR Value 10k
SYMBOL OpAmps\\UniversalOpAmp1 208 176 R0
SYMATTR InstName U1
SYMBOL voltage 432 16 R0
WINDOW 123 0 0 Left 0
WINDOW 39 0 0 Left 0
SYMATTR InstName V2
SYMATTR Value 12
SYMBOL voltage 592 16 R0
WINDOW 123 0 0 Left 0
WINDOW 39 0 0 Left 0
SYMATTR InstName V3
SYMATTR Value -12
SYMBOL res 112 224 R90
WINDOW 0 0 56 VBottom 2
WINDOW 3 32 56 VTop 2
SYMATTR InstName R3
SYMATTR Value 1k
TEXT -198 306 Left 2 !.tran 50m
