Version 4
SHEET 1 880 680
WIRE 208 -384 160 -384
WIRE 304 -384 288 -384
WIRE -16 -288 -64 -288
WIRE 160 -288 160 -384
WIRE 160 -288 64 -288
WIRE 160 -256 160 -288
WIRE 208 -256 160 -256
WIRE 304 -240 304 -384
WIRE 304 -240 272 -240
WIRE 352 -240 304 -240
WIRE 208 -224 160 -224
WIRE -16 -176 -64 -176
WIRE 160 -176 160 -224
WIRE 160 -176 64 -176
WIRE 160 -144 160 -176
WIRE 160 -48 160 -64
FLAG 160 -48 0
FLAG -144 -288 0
FLAG -144 -176 0
FLAG 512 -400 Vcc
FLAG 240 -272 Vcc
FLAG 640 -400 Vee
FLAG 240 -208 Vee
FLAG 512 -320 0
FLAG 640 -320 0
SYMBOL res -32 -304 M90
WINDOW 0 0 56 VBottom 2
WINDOW 3 32 56 VTop 2
SYMATTR InstName R1
SYMATTR Value 1k
SYMBOL res -32 -192 M90
WINDOW 0 0 56 VBottom 2
WINDOW 3 32 56 VTop 2
SYMATTR InstName R2
SYMATTR Value 1k
SYMBOL res 192 -400 M90
WINDOW 0 0 56 VBottom 2
WINDOW 3 32 56 VTop 2
SYMATTR InstName R3
SYMATTR Value 10k
SYMBOL res 144 -160 R0
SYMATTR InstName R4
SYMATTR Value 10k
SYMBOL voltage -48 -288 R90
WINDOW 0 -32 56 VBottom 2
WINDOW 3 32 56 VTop 2
WINDOW 123 0 0 Left 0
WINDOW 39 0 0 Left 0
SYMATTR InstName V1
SYMATTR Value SINE(0 100m 100)
SYMBOL voltage -48 -176 R90
WINDOW 0 -32 56 VBottom 2
WINDOW 3 32 56 VTop 2
WINDOW 123 0 0 Left 0
WINDOW 39 0 0 Left 0
SYMATTR InstName V2
SYMATTR Value SINE(0 -100m 100)
SYMBOL OpAmps\\UniversalOpAmp 240 -240 R0
SYMATTR InstName U1
SYMBOL voltage 512 -416 R0
WINDOW 123 0 0 Left 0
WINDOW 39 0 0 Left 0
SYMATTR InstName V3
SYMATTR Value 12
SYMBOL voltage 640 -416 R0
WINDOW 123 0 0 Left 0
WINDOW 39 0 0 Left 0
SYMATTR InstName V4
SYMATTR Value 12
TEXT -214 -24 Left 2 !.tran 50m
