Version 4
SHEET 1 880 680
WIRE 240 -80 112 -80
WIRE 112 -48 112 -80
WIRE 240 -48 240 -80
WIRE 240 48 240 32
WIRE 304 48 240 48
WIRE 240 64 240 48
WIRE -32 112 -96 112
WIRE 112 112 112 32
WIRE 112 112 32 112
WIRE 176 112 112 112
WIRE 240 176 240 160
WIRE 304 176 240 176
WIRE 112 192 112 112
WIRE 240 192 240 176
WIRE 112 304 112 272
WIRE 240 304 240 272
FLAG 112 304 0
FLAG 240 304 0
SYMBOL res 96 -64 R0
SYMATTR InstName R1
SYMBOL res 224 -64 R0
SYMATTR InstName R2
SYMBOL res 96 176 R0
SYMATTR InstName R3
SYMBOL res 224 176 R0
SYMATTR InstName R4
SYMBOL npn 176 64 R0
SYMATTR InstName Q1
SYMBOL cap 368 32 R90
WINDOW 0 0 32 VBottom 2
WINDOW 3 32 32 VTop 2
SYMATTR InstName C1
SYMBOL cap 368 160 R90
WINDOW 0 0 32 VBottom 2
WINDOW 3 32 32 VTop 2
SYMATTR InstName C2
SYMBOL cap 32 96 R90
WINDOW 0 0 32 VBottom 2
WINDOW 3 32 32 VTop 2
SYMATTR InstName C3
