Version 4
SHEET 1 880 680
WIRE 176 -80 176 -112
WIRE 176 -80 112 -80
WIRE 240 -80 176 -80
WIRE 112 -48 112 -80
WIRE 240 -48 240 -80
WIRE 240 48 240 32
WIRE 304 48 240 48
WIRE 416 48 368 48
WIRE 240 64 240 48
WIRE -96 112 -144 112
WIRE 32 112 -16 112
WIRE 112 112 112 32
WIRE 112 112 96 112
WIRE 176 112 112 112
WIRE 240 176 240 160
WIRE 304 176 240 176
WIRE 432 176 368 176
WIRE 592 176 512 176
WIRE 112 192 112 112
WIRE 240 192 240 176
WIRE 112 304 112 272
WIRE 240 304 240 272
FLAG 112 304 0
FLAG 240 304 0
FLAG 176 -192 0
FLAG 416 48 0
FLAG -224 112 0
FLAG 592 176 0
SYMBOL res 96 -64 R0
SYMATTR InstName R1
SYMATTR Value 2k
SYMBOL res 224 -64 R0
SYMATTR InstName R2
SYMATTR Value 2k
SYMBOL res 96 176 R0
SYMATTR InstName R3
SYMATTR Value 500
SYMBOL res 224 176 R0
SYMATTR InstName R4
SYMATTR Value 500
SYMBOL npn 176 64 R0
SYMATTR InstName Q1
SYMBOL cap 368 32 R90
WINDOW 0 0 32 VBottom 2
WINDOW 3 32 32 VTop 2
SYMATTR InstName C1
SYMATTR Value 0.001
SYMBOL cap 368 160 R90
WINDOW 0 0 32 VBottom 2
WINDOW 3 32 32 VTop 2
SYMATTR InstName C2
SYMATTR Value 0.001
SYMBOL cap 96 96 R90
WINDOW 0 0 32 VBottom 2
WINDOW 3 32 32 VTop 2
SYMATTR InstName C3
SYMATTR Value 0.001
SYMBOL voltage 176 -96 R180
WINDOW 0 24 96 Left 2
WINDOW 3 24 16 Left 2
WINDOW 123 0 0 Left 0
WINDOW 39 0 0 Left 0
SYMATTR InstName V2
SYMATTR Value 10
SYMBOL res 0 96 R90
WINDOW 0 0 56 VBottom 2
WINDOW 3 32 56 VTop 2
SYMATTR InstName R5
SYMATTR Value 1k
SYMBOL voltage -128 112 R90
WINDOW 0 -32 56 VBottom 2
WINDOW 3 32 56 VTop 2
WINDOW 123 60 56 VTop 2
WINDOW 39 0 0 Left 0
SYMATTR InstName V1
SYMATTR Value SINE(0 10m 1k)
SYMATTR Value2 AC 1
SYMBOL res 528 160 R90
WINDOW 0 0 56 VBottom 2
WINDOW 3 32 56 VTop 2
SYMATTR InstName R6
SYMATTR Value 100
TEXT -246 328 Left 2 !.tran 10m
